#       Name:                _i001
#       Creating user name   gordoncs
#       Creation time:       Sat Jan 29 15:13:44 2022


#       File generated by GOLD software.
#

@<TRIPOS>MOLECULE
_i001|batch_17|mol2|4|dock134
    98   101     1
SMALL
NO_CHARGES


@<TRIPOS>ATOM
      1 C1         -13.5864  47.4997 -20.4519 C.3            1 <1>                0.0000
      2 C2         -14.6681  46.4341 -20.2644 C.3            1 <1>                0.0000
      3 C3         -15.0712  45.8709 -21.6287 C.3            1 <1>                0.0000
      4 C4         -14.1331  45.3217 -19.3999 C.2            1 <1>                0.0000
      5 N5         -14.7963  44.2700 -19.0553 N.2            1 <1>                0.0000
      6 C6         -14.1764  43.3917 -18.2930 C.2            1 <1>                0.0000
      7 C7         -12.9220  43.7234 -17.9730 C.2            1 <1>                0.0000
      8 S8         -12.5593  45.2707 -18.7339 S.3            1 <1>                0.0000
      9 C9         -14.8305  42.1207 -17.8160 C.3            1 <1>                0.0000
     10 N10        -13.9824  41.4848 -16.8048 N.am           1 <1>                0.0000
     11 C11        -13.8329  42.0985 -15.4831 C.3            1 <1>                0.0000
     12 C12        -13.3396  40.3351 -17.0906 C.2            1 <1>                0.0000
     13 O13        -12.3901  39.9857 -16.4163 O.2            1 <1>                0.0000
     14 N14        -13.7494  39.5728 -18.1237 N.am           1 <1>                0.0000
     15 C15        -13.0506  38.3231 -18.4344 C.3            1 <1>                0.0000
     16 H16        -12.9196  37.7433 -17.5207 H              1 <1>                0.0000
     17 C17        -13.8747  37.5140 -19.4379 C.3            1 <1>                0.0000
     18 C18        -13.0384  36.3432 -19.9581 C.3            1 <1>                0.0000
     19 C19        -15.1318  36.9773 -18.7506 C.3            1 <1>                0.0000
     20 C20        -11.7016  38.6362 -19.0286 C.2            1 <1>                0.0000
     21 O21        -11.6111  39.4251 -19.9453 O.2            1 <1>                0.0000
     22 N22        -10.5957  38.0396 -18.5412 N.am           1 <1>                0.0000
     23 C23         -9.2734  38.4340 -19.0335 C.3            1 <1>                0.0000
     24 H24         -9.3775  39.2707 -19.7244 H              1 <1>                0.0000
     25 C25         -8.3941  38.8532 -17.8536 C.3            1 <1>                0.0000
     26 C26         -7.5043  39.9955 -18.2712 C.ar           1 <1>                0.0000
     27 C27         -6.6163  40.5464 -17.3662 C.ar           1 <1>                0.0000
     28 C28         -5.8005  41.5945 -17.7490 C.ar           1 <1>                0.0000
     29 C29         -5.8724  42.0917 -19.0369 C.ar           1 <1>                0.0000
     30 C30         -6.7641  41.5442 -19.9403 C.ar           1 <1>                0.0000
     31 C31         -7.5762  40.4927 -19.5590 C.ar           1 <1>                0.0000
     32 C32         -8.6256  37.2522 -19.7577 C.3            1 <1>                0.0000
     33 C33         -9.0082  35.9497 -19.0519 C.3            1 <1>                0.0000
     34 H34        -10.0813  35.9416 -18.8609 H              1 <1>                0.0000
     35 C35         -8.6394  34.7604 -19.9410 C.3            1 <1>                0.0000
     36 H36         -9.2266  34.7969 -20.8586 H              1 <1>                0.0000
     37 C37         -8.9358  33.4565 -19.1974 C.3            1 <1>                0.0000
     38 C38        -10.4237  33.2177 -19.1756 C.ar           1 <1>                0.0000
     39 C39        -11.2424  34.0275 -18.4110 C.ar           1 <1>                0.0000
     40 C40        -12.6077  33.8115 -18.3947 C.ar           1 <1>                0.0000
     41 C41        -13.1531  32.7793 -19.1351 C.ar           1 <1>                0.0000
     42 C42        -12.3336  31.9664 -19.8957 C.ar           1 <1>                0.0000
     43 C43        -10.9689  32.1855 -19.9160 C.ar           1 <1>                0.0000
     44 N44         -7.2134  34.8211 -20.2709 N.am           1 <1>                0.0000
     45 C45         -6.7870  34.4375 -21.4906 C.2            1 <1>                0.0000
     46 O46         -7.5853  34.0413 -22.3165 O.2            1 <1>                0.0000
     47 O47         -5.4764  34.4932 -21.7939 O.3            1 <1>                0.0000
     48 C48         -5.1134  34.3030 -23.1868 C.3            1 <1>                0.0000
     49 C49         -3.9428  33.3582 -23.2763 C.2            1 <1>                0.0000
     50 C50         -3.9302  32.0822 -22.8796 C.2            1 <1>                0.0000
     51 N51         -2.7827  31.4624 -23.0686 N.2            1 <1>                0.0000
     52 C52         -1.8234  32.1475 -23.5931 C.2            1 <1>                0.0000
     53 S53         -2.3466  33.7430 -23.9157 S.3            1 <1>                0.0000
     54 O54         -8.3031  35.8546 -17.8126 O.3            1 <1>                0.0000
     55 H55        -13.9734  48.3043 -21.0772 H              1 <1>                0.0000
     56 H56        -13.2992  47.9009 -19.4799 H              1 <1>                0.0000
     57 H57        -12.7158  47.0531 -20.9322 H              1 <1>                0.0000
     58 H58        -15.5388  46.8807 -19.7841 H              1 <1>                0.0000
     59 H59        -15.8419  45.1118 -21.4952 H              1 <1>                0.0000
     60 H60        -15.4582  46.6755 -22.2540 H              1 <1>                0.0000
     61 H61        -14.2006  45.4243 -22.1090 H              1 <1>                0.0000
     62 H62        -12.2489  43.1444 -17.3581 H              1 <1>                0.0000
     63 H63        -14.9629  41.4418 -18.6584 H              1 <1>                0.0000
     64 H64        -15.8025  42.3535 -17.3809 H              1 <1>                0.0000
     65 H65        -12.9879  42.7870 -15.4957 H              1 <1>                0.0000
     66 H66        -14.7422  42.6439 -15.2307 H              1 <1>                0.0000
     67 H67        -13.6572  41.3213 -14.7394 H              1 <1>                0.0000
     68 H68        -14.5068  39.8515 -18.6616 H              1 <1>                0.0000
     69 H69        -14.1619  38.1542 -20.2721 H              1 <1>                0.0000
     70 H70        -12.7330  35.7149 -19.1213 H              1 <1>                0.0000
     71 H71        -13.6328  35.7542 -20.6566 H              1 <1>                0.0000
     72 H72        -12.1538  36.7261 -20.4668 H              1 <1>                0.0000
     73 H73        -15.7275  37.8115 -18.3801 H              1 <1>                0.0000
     74 H74        -15.7188  36.4009 -19.4656 H              1 <1>                0.0000
     75 H75        -14.8446  36.3371 -17.9164 H              1 <1>                0.0000
     76 H76        -10.6752  37.3493 -17.8646 H              1 <1>                0.0000
     77 H77         -7.7792  38.0092 -17.5410 H              1 <1>                0.0000
     78 H78         -9.0261  39.1694 -17.0238 H              1 <1>                0.0000
     79 H79         -6.5604  40.1582 -16.3599 H              1 <1>                0.0000
     80 H80         -5.1069  42.0252 -17.0419 H              1 <1>                0.0000
     81 H81         -5.2352  42.9108 -19.3359 H              1 <1>                0.0000
     82 H82         -6.8235  41.9357 -20.9451 H              1 <1>                0.0000
     83 H83         -8.2702  40.0625 -20.2659 H              1 <1>                0.0000
     84 H84         -8.9755  37.2224 -20.7897 H              1 <1>                0.0000
     85 H85         -7.5418  37.3677 -19.7446 H              1 <1>                0.0000
     86 H86         -8.4423  32.6281 -19.7057 H              1 <1>                0.0000
     87 H87         -8.5644  33.5286 -18.1753 H              1 <1>                0.0000
     88 H88        -10.8159  34.8312 -17.8291 H              1 <1>                0.0000
     89 H89        -13.2478  34.4466 -17.8002 H              1 <1>                0.0000
     90 H90        -14.2193  32.6078 -19.1189 H              1 <1>                0.0000
     91 H91        -12.7596  31.1597 -20.4737 H              1 <1>                0.0000
     92 H92        -10.3288  31.5502 -20.5099 H              1 <1>                0.0000
     93 H93         -6.5760  35.1373 -19.6116 H              1 <1>                0.0000
     94 H94         -5.9609  33.8839 -23.7292 H              1 <1>                0.0000
     95 H95         -4.8401  35.2628 -23.6253 H              1 <1>                0.0000
     96 H96         -4.7909  31.5976 -22.4428 H              1 <1>                0.0000
     97 H97         -0.8332  31.7683 -23.7981 H              1 <1>                0.0000
     98 H98         -8.8252  36.1165 -17.0419 H              1 <1>                0.0000
@<TRIPOS>BOND
    1    1    2 1     
    2    1   55 1     
    3    1   56 1     
    4    1   57 1     
    5    2    3 1     
    6    2    4 1     
    7    2   58 1     
    8    3   59 1     
    9    3   60 1     
   10    3   61 1     
   11    4    8 1     
   12    4    5 2     
   13    5    6 1     
   14    6    7 2     
   15    6    9 1     
   16    7    8 1     
   17    7   62 1     
   18    9   10 1     
   19    9   63 1     
   20    9   64 1     
   21   10   11 1     
   22   10   12 am    
   23   11   65 1     
   24   11   66 1     
   25   11   67 1     
   26   12   13 2     
   27   12   14 am    
   28   14   15 1     
   29   14   68 1     
   30   15   16 1     
   31   15   17 1     
   32   15   20 1     
   33   17   18 1     
   34   17   19 1     
   35   17   69 1     
   36   18   70 1     
   37   18   71 1     
   38   18   72 1     
   39   19   73 1     
   40   19   74 1     
   41   19   75 1     
   42   20   21 2     
   43   20   22 am    
   44   22   23 1     
   45   22   76 1     
   46   23   24 1     
   47   23   25 1     
   48   23   32 1     
   49   25   26 1     
   50   25   77 1     
   51   25   78 1     
   52   26   31 ar    
   53   26   27 ar    
   54   27   28 ar    
   55   27   79 1     
   56   28   29 ar    
   57   28   80 1     
   58   29   30 ar    
   59   29   81 1     
   60   30   31 ar    
   61   30   82 1     
   62   31   83 1     
   63   32   33 1     
   64   32   84 1     
   65   32   85 1     
   66   33   34 1     
   67   33   35 1     
   68   33   54 1     
   69   35   36 1     
   70   35   37 1     
   71   35   44 1     
   72   37   38 1     
   73   37   86 1     
   74   37   87 1     
   75   38   43 ar    
   76   38   39 ar    
   77   39   40 ar    
   78   39   88 1     
   79   40   41 ar    
   80   40   89 1     
   81   41   42 ar    
   82   41   90 1     
   83   42   43 ar    
   84   42   91 1     
   85   43   92 1     
   86   44   45 am    
   87   44   93 1     
   88   45   46 2     
   89   45   47 1     
   90   47   48 1     
   91   48   49 1     
   92   48   94 1     
   93   48   95 1     
   94   49   53 1     
   95   49   50 2     
   96   50   51 1     
   97   50   96 1     
   98   51   52 2     
   99   52   53 1     
  100   52   97 1     
  101   54   98 1     
@<TRIPOS>SUBSTRUCTURE
      1 ****           1
@<TRIPOS>SET
DONOR_HYDROGENS      STATIC     ATOMS    <user>   **** ""
4 68 76 93 98
ATOM$RED        STATIC     ATOMS    COLORGROUP SYSTEM
4 68 76 93 98
@<TRIPOS>COMMENT
> <Gold.Version>
2021.1.0

> <Gold.Id.Protein>
7SI9|7SI9_protein|mol2

> <Gold.Protein.RotatedTorsions>
[ 3218   91   90   89 ] final  -48.98 input   60.00 | X-H torsion
[ 4148 1783 1782 1779 ] final  114.48 input   60.00 | X-H torsion

> <Gold.Protein.ActiveResidues>
 PHE8    PRO9    SER10   GLY11   LYS12   VAL13   GLU14   GLY15   CYS16   MET17  
 VAL18   GLN19   VAL20   THR21   THR25   THR26   LEU27   ASN28   GLY29   LEU30  
 TRP31   LEU32   ASP33   ASP34   VAL35   VAL36   TYR37   CYS38   PRO39   ARG40  
 HIS41   VAL42   ILE43   CYS44   ALA70   ASN72   VAL73   GLN74   LEU75   ARG76  
 VAL77   ILE78   GLY79   HIS80   SER81   MET82   GLN83   VAL114  LEU115  ALA116 
 CYS117  TYR118  ASN119  GLY120  SER121  SER123  TYR126  SER139  PHE140  LEU141 
 ASN142  GLY143  SER144  CYS145  GLY146  SER147  VAL148  TYR161  MET162  HIS163 
 HIS164  MET165  GLU166  HIS172  ALA173  GLY174  VAL212  ILE213  ASN214  GLY215 
 ASP216  ARG217  TRP218  PHE219  LEU220  ASN221  ARG222  PHE223  THR225  THR226 
 PHE230  LEU232  VAL233  ALA234  MET235  LYS236  TYR239  GLU240 

> <Gold.Protein.RotatedAtoms>
  -22.7554   56.9972    5.3873 H   0  0  0  0  0  0  0  0  0  0  0  0  # atno 3218 bound_to 91  
  -23.1265   55.5395    6.0832 H   0  0  0  0  0  0  0  0  0  0  0  0  # atno 3219 bound_to 91  
  -23.0908   56.9143    7.0084 H   0  0  0  0  0  0  0  0  0  0  0  0  # atno 3220 bound_to 91  
   -4.6086   16.4753   19.6603 H   0  0  0  0  0  0  0  0  0  0  0  0  # atno 4148 bound_to 1783

> <Gold.Score>
     Score     S(PLP)   S(hbond)     S(cho)   S(metal)  DE(clash)   DE(tors)     intcor
    100.37     -99.24       2.90       0.00       0.00       3.85       2.61       1.49

> <Gold.PLP.Fitness>
100.3712

> <Gold.PLP.PLP>
-99.2422

> <Gold.PLP.part.hbond>
-3.4030

> <Gold.PLP.part.metal>
0.0000

> <Gold.PLP.part.buried>
-12.8900

> <Gold.PLP.part.nonpolar>
-84.9246

> <Gold.PLP.part.repulsive>
0.4702

> <Gold.PLP.ligand.clash>
3.8460

> <Gold.PLP.ligand.torsion>
2.6085

> <Gold.PLP.Chemscore.Hbond>
2.9020

> <Gold.PLP.Chemscore.CHOScore>
0.0000

> <Gold.PLP.Chemscore.Metal>
0.0000

> <Gold.Chemscore.Hbonds>
donor molecule, donor type, donor heavy atom, donor atom, acceptor molecule, acceptor atom, score
      L1  H    22    76       P1  1315  0.39
      L1  H    54    98       P1  1315  1.00
      P1  H  1136  2470       L1     5  1.00
      P1  H  1312  3711       L1    13  0.51

> <Gold.PLP.Chemscore.Internal.Correction>
1.4860

