#       Name:                _i001
#       Creating user name   gordoncs
#       Creation time:       Thu Jan 27 17:11:52 2022


#       File generated by GOLD software.
#

@<TRIPOS>MOLECULE
_i001|batch_16|mol2|4|dock1
    67    69     1
SMALL
NO_CHARGES


@<TRIPOS>ATOM
      1 C1         -22.9551 -21.5943  -4.6750 C.3            1 <1>                0.0000
      2 C2         -24.2709 -20.8356  -4.8596 C.3            1 <1>                0.0000
      3 C3         -24.1987 -19.3097  -4.9459 C.3            1 <1>                0.0000
      4 H4         -24.9491 -18.7064  -4.4348 H              1 <1>                0.0000
      5 C5         -24.5039 -20.1452  -6.2049 C.3            1 <1>                0.0000
      6 H6         -25.4966 -20.1655  -6.6546 H              1 <1>                0.0000
      7 C7         -23.2894 -19.9298  -7.1328 C.3            1 <1>                0.0000
      8 H8         -23.0452 -20.8514  -7.6611 H              1 <1>                0.0000
      9 N9         -22.1860 -19.5493  -6.2205 N.am           1 <1>                0.0000
     10 C10        -22.8255 -18.6605  -5.2226 C.3            1 <1>                0.0000
     11 C11        -20.8936 -19.9263  -6.2839 C.2            1 <1>                0.0000
     12 O12        -20.0889 -19.4672  -5.5012 O.2            1 <1>                0.0000
     13 C13        -20.4485 -20.9184  -7.3273 C.3            1 <1>                0.0000
     14 H14        -21.3207 -21.4161  -7.7510 H              1 <1>                0.0000
     15 C15        -19.5304 -21.9591  -6.6829 C.3            1 <1>                0.0000
     16 C16        -18.2000 -21.3031  -6.3082 C.3            1 <1>                0.0000
     17 C17        -20.1966 -22.5168  -5.4236 C.3            1 <1>                0.0000
     18 C18        -19.2767 -23.0979  -7.6727 C.3            1 <1>                0.0000
     19 N19        -19.7223 -20.2175  -8.3892 N.am           1 <1>                0.0000
     20 C20        -19.9588 -20.5209  -9.6810 C.2            1 <1>                0.0000
     21 O21        -20.7728 -21.3742  -9.9641 O.2            1 <1>                0.0000
     22 C22        -19.2120 -19.7999 -10.7732 C.3            1 <1>                0.0000
     23 F23        -18.3340 -18.8715 -10.2036 F              1 <1>                0.0000
     24 F24        -18.4855 -20.7249 -11.5306 F              1 <1>                0.0000
     25 F25        -20.1231 -19.1336 -11.5998 F              1 <1>                0.0000
     26 C26        -23.5658 -18.8202  -8.1145 C.2            1 <1>                0.0000
     27 O27        -22.9375 -17.7847  -8.0519 O.2            1 <1>                0.0000
     28 N28        -24.5110 -18.9786  -9.0621 N.am           1 <1>                0.0000
     29 C29        -24.7796 -17.9001 -10.0164 C.3            1 <1>                0.0000
     30 H30        -23.8428 -17.5717 -10.4666 H              1 <1>                0.0000
     31 C31        -25.7202 -18.4096 -11.1104 C.3            1 <1>                0.0000
     32 C32        -26.2994 -17.2203 -11.8793 C.3            1 <1>                0.0000
     33 H33        -26.8713 -16.5769 -11.2107 H              1 <1>                0.0000
     34 C34        -27.1857 -17.7110 -13.0476 C.3            1 <1>                0.0000
     35 C35        -26.8795 -16.6605 -14.1380 C.3            1 <1>                0.0000
     36 N36        -25.5438 -16.1428 -13.8190 N.am           1 <1>                0.0000
     37 C37        -25.1947 -16.4380 -12.5549 C.2            1 <1>                0.0000
     38 O38        -24.1469 -16.1225 -12.0319 O.2            1 <1>                0.0000
     39 C39        -25.4098 -16.7699  -9.3149 C.1            1 <1>                0.0000
     40 N40        -25.8962 -15.8975  -8.7736 N.1            1 <1>                0.0000
     41 C41        -25.4871 -21.4455  -4.1600 C.3            1 <1>                0.0000
     42 H42        -22.8828 -22.3835  -5.4233 H              1 <1>                0.0000
     43 H43        -22.9266 -22.0348  -3.6784 H              1 <1>                0.0000
     44 H44        -22.1188 -20.9051  -4.7917 H              1 <1>                0.0000
     45 H45        -22.9544 -17.6589  -5.6329 H              1 <1>                0.0000
     46 H46        -22.2321 -18.6227  -4.3090 H              1 <1>                0.0000
     47 H47        -18.3672 -20.5640  -5.5248 H              1 <1>                0.0000
     48 H48        -17.5082 -22.0645  -5.9477 H              1 <1>                0.0000
     49 H49        -17.7765 -20.8135  -7.1853 H              1 <1>                0.0000
     50 H50        -21.1444 -22.9841  -5.6905 H              1 <1>                0.0000
     51 H51        -19.5426 -23.2582  -4.9645 H              1 <1>                0.0000
     52 H52        -20.3774 -21.7055  -4.7184 H              1 <1>                0.0000
     53 H53        -18.8021 -22.7004  -8.5699 H              1 <1>                0.0000
     54 H54        -18.6227 -23.8392  -7.2137 H              1 <1>                0.0000
     55 H55        -20.2246 -23.5651  -7.9396 H              1 <1>                0.0000
     56 H56        -19.0713 -19.5350  -8.1627 H              1 <1>                0.0000
     57 H57        -25.0135 -19.8069  -9.1122 H              1 <1>                0.0000
     58 H58        -25.1663 -19.0506 -11.7962 H              1 <1>                0.0000
     59 H59        -26.5314 -18.9785 -10.6562 H              1 <1>                0.0000
     60 H60        -26.8871 -18.7080 -13.3717 H              1 <1>                0.0000
     61 H61        -28.2400 -17.6921 -12.7718 H              1 <1>                0.0000
     62 H62        -26.8776 -17.1283 -15.1225 H              1 <1>                0.0000
     63 H63        -27.6140 -15.8558 -14.1033 H              1 <1>                0.0000
     64 H64        -24.9846 -15.6509 -14.4405 H              1 <1>                0.0000
     65 H65        -25.1749 -21.9027  -3.2212 H              1 <1>                0.0000
     66 H66        -26.2197 -20.6641  -3.9578 H              1 <1>                0.0000
     67 H67        -25.9334 -22.2042  -4.8029 H              1 <1>                0.0000
@<TRIPOS>BOND
    1    1    2 1     
    2    1   42 1     
    3    1   43 1     
    4    1   44 1     
    5    2    5 1     
    6    2    3 1     
    7    2   41 1     
    8    3    4 1     
    9    3   10 1     
   10    3    5 1     
   11    5    6 1     
   12    5    7 1     
   13    7    8 1     
   14    7    9 1     
   15    7   26 1     
   16    9   10 1     
   17    9   11 am    
   18   10   45 1     
   19   10   46 1     
   20   11   12 2     
   21   11   13 1     
   22   13   14 1     
   23   13   15 1     
   24   13   19 1     
   25   15   16 1     
   26   15   17 1     
   27   15   18 1     
   28   16   47 1     
   29   16   48 1     
   30   16   49 1     
   31   17   50 1     
   32   17   51 1     
   33   17   52 1     
   34   18   53 1     
   35   18   54 1     
   36   18   55 1     
   37   19   20 am    
   38   19   56 1     
   39   20   21 2     
   40   20   22 1     
   41   22   23 1     
   42   22   24 1     
   43   22   25 1     
   44   26   27 2     
   45   26   28 am    
   46   28   29 1     
   47   28   57 1     
   48   29   30 1     
   49   29   31 1     
   50   29   39 1     
   51   31   32 1     
   52   31   58 1     
   53   31   59 1     
   54   32   33 1     
   55   32   37 1     
   56   32   34 1     
   57   34   35 1     
   58   34   60 1     
   59   34   61 1     
   60   35   36 1     
   61   35   62 1     
   62   35   63 1     
   63   36   37 am    
   64   36   64 1     
   65   37   38 2     
   66   39   40 3     
   67   41   65 1     
   68   41   66 1     
   69   41   67 1     
@<TRIPOS>SUBSTRUCTURE
      1 ****           1
@<TRIPOS>SET
DONOR_HYDROGENS      STATIC     ATOMS    <user>   **** ""
3 56 57 64
ATOM$RED        STATIC     ATOMS    COLORGROUP SYSTEM
3 56 57 64
@<TRIPOS>COMMENT
> <Gold.Version>
2021.1.0

> <Gold.Id.Protein>
5VC0|5VC0_protein|mol2

> <Gold.Protein.RotatedTorsions>
[ 4586  510  509  508 ] final  -44.85 input   60.00 | X-H torsion
[ 4648  516  515  512 ] final  -14.05 input   60.00 | X-H torsion
[ 4666  548  547  546 ] final  160.05 input   60.00 | X-H torsion
[ 4678  575  574  572 ] final  119.37 input   60.00 | X-H torsion
[ 4686  605  604  601 ] final  174.32 input   60.00 | X-H torsion
[ 4835  704  703  702 ] final  125.20 input   60.00 | X-H torsion
[ 4838  710  709  706 ] final   76.07 input   60.00 | X-H torsion
[ 4824  729  728  725 ] final  174.58 input   60.00 | X-H torsion
[ 4915  800  799  798 ] final   29.80 input   60.00 | X-H torsion
[ 4957  836  835  832 ] final    7.37 input   60.00 | X-H torsion
[ 4995  858  857  854 ] final  104.45 input   60.00 | X-H torsion
[ 4974  871  870  867 ] final  159.39 input   60.00 | X-H torsion
[ 5014  889  888  885 ] final  134.11 input   60.00 | X-H torsion
[ 5024  896  895  892 ] final  -86.64 input   60.00 | X-H torsion
[ 5020  909  908  907 ] final -117.54 input   60.00 | X-H torsion
[ 5045  926  925  924 ] final -139.55 input   60.00 | X-H torsion
[ 5110  999  998  996 ] final  -24.61 input   60.00 | X-H torsion
[ 6101 1163 1162 1161 ] final    6.32 input   59.99 | X-H torsion
[ 6146 1210 1209 1207 ] final   28.83 input   60.00 | X-H torsion
[ 6164 1216 1215 1212 ] final  -68.20 input   60.00 | X-H torsion
[ 6188 1253 1252 1249 ] final -156.80 input   60.00 | X-H torsion
[ 6192 1260 1259 1256 ] final   63.06 input   60.00 | X-H torsion
[ 6196 1266 1265 1262 ] final  -62.60 input   60.00 | X-H torsion
[ 6224 1273 1272 1269 ] final  -71.05 input   60.00 | X-H torsion
[ 6261 1325 1324 1321 ] final -113.28 input   60.00 | X-H torsion
[ 6346 1421 1420 1417 ] final   10.45 input   60.00 | X-H torsion
[ 6390 1440 1439 1438 ] final  169.34 input   60.00 | X-H torsion
[ 4037 1750 1749 1746 ] final   84.94 input   60.00 | X-H torsion
[ 5891 2137 2136 2133 ] final  -44.46 input   60.00 | X-H torsion
[ 5969 2204 2203 2201 ] final    7.55 input   60.00 | X-H torsion
[ 5994 2219 2218 2215 ] final  -24.82 input   60.01 | X-H torsion
[ 5980 2226 2225 2222 ] final   -0.91 input   60.00 | X-H torsion
[ 5981 2233 2232 2229 ] final   78.68 input   59.99 | X-H torsion
[ 5987 2239 2238 2235 ] final  179.06 input   60.00 | X-H torsion
[ 6016 2260 2259 2256 ] final   69.33 input   59.99 | X-H torsion
[ 6052 2299 2298 2296 ] final -143.02 input   60.00 | X-H torsion
[ 5449 2520 2519 2517 ] final  -65.73 input   60.00 | X-H torsion
[ 5579 2649 2648 2645 ] final  -76.99 input   60.00 | X-H torsion
[ 6753 2927 2926 2923 ] final   81.82 input   60.00 | X-H torsion
[ 6754 2939 2938 2936 ] final  -81.34 input   60.00 | X-H torsion
[ 7039 3213 3212 3210 ] final  167.54 input   60.00 | X-H torsion
[ 7043 3233 3232 3230 ] final   -8.28 input   60.00 | X-H torsion
[ 7058 3239 3238 3235 ] final   74.63 input   60.00 | X-H torsion
[ 7061 3268 3267 3264 ] final -171.51 input   60.00 | X-H torsion
[ 7427 3594 3593 3590 ] final   47.82 input   60.00 | X-H torsion

> <Gold.Protein.ActiveResidues>
 PHE57   CYS58   ASP61   VAL81   ILE84   ILE90   LYS91   THR92   VAL93   LEU94  
 VAL95   LYS96   GLU97   CYS98   TYR99   PHE102  THR103  ASN104  ARG105  ARG106 
 PRO107  PHE108  GLY109  PRO110  VAL111  PHE113  MET114  LYS115  SER116  ALA117 
 ILE118  SER119  ILE120  ALA121  GLU122  ASP123  GLU124  GLU125  TRP126  LYS127 
 ARG128  LEU129  ARG130  SER131  LEU132  LEU133  SER134  PRO135  THR136  PHE137 
 THR138  SER139  GLY140  LYS141  LEU142  LYS143  GLU144  MET145  VAL146  ILE148 
 ILE149  TYR152  LEU156  LEU172  LYS173  ASP174  VAL175  PHE176  GLY177  ALA178 
 TYR179  SER180  MET181  ASP182  VAL183  ILE184  THR185  SER186  THR187  SER188 
 PHE189  GLY190  ILE193  SER195  PHE203  VAL204  ASN206  THR207  LYS208  LYS209 
 LEU210  LEU211  ARG212  PHE213  ASP214  PHE215  PHE220  CYS239  VAL240  PHE241 
 PRO242  VAL245  THR246  PHE248  LEU249  VAL253  VAL269  ASP270  PHE271  LEU272 
 GLN273  LEU274  MET275  LEU290  LEU293  GLU294  LEU295  VAL296  ALA297  GLN298 
 SER299  ILE300  ILE301  PHE302  ILE303  PHE304  ALA305  GLY306  TYR307  GLU308 
 THR309  THR310  SER311  SER312  VAL313  LEU314  SER315  PHE316  ILE317  MET318 
 TYR319  GLU320  TYR347  VAL350  LEU351  LEU356  ASP357  MET358  VAL359  VAL360 
 ASN361  GLU362  THR363  LEU364  ARG365  LEU366  PHE367  PRO368  ILE369  ALA370 
 MET371  ARG372  LEU373  GLU374  ARG375  VAL376  VAL393  VAL394  MET395  ILE396 
 PRO397  SER398  TYR399  ALA400  LEU401  HIS402  ARG403  TRP408  PHE414  PHE419 
 ILE427  ASP428  PRO429  TYR430  ILE431  TYR432  THR433  PRO434  PHE435  GLY436 
 SER437  GLY438  PRO439  ARG440  ASN441  CYS442  ILE443  GLY444  MET445  ARG446 
 PHE447  ALA448  LEU449  MET450  ASN451  MET452  LYS453  LEU454  ALA455  LEU456 
 ILE457  LEU477  SER478  GLY480  GLY481  LEU482  LEU483  GLN484  PRO485  VAL493 
 ARG496  HEM601 

> <Gold.Protein.RotatedAtoms>
  -31.0118  -21.1118    5.4961 H   0  0  0  0  0  0  0  0  0  0  0  0  # atno 4037 bound_to 1750
    1.1756  -11.7115  -20.0088 H   0  0  0  0  0  0  0  0  0  0  0  0  # atno 4586 bound_to 510 
    1.4692  -10.4245  -19.0063 H   0  0  0  0  0  0  0  0  0  0  0  0  # atno 4587 bound_to 510 
    2.1352  -11.9049  -18.6713 H   0  0  0  0  0  0  0  0  0  0  0  0  # atno 4588 bound_to 510 
   -2.9046   -6.6114  -18.2709 H   0  0  0  0  0  0  0  0  0  0  0  0  # atno 4648 bound_to 516 
    0.5103   -8.2177  -19.4638 H   0  0  0  0  0  0  0  0  0  0  0  0  # atno 4666 bound_to 548 
   -1.0894   -8.4723  -19.1124 H   0  0  0  0  0  0  0  0  0  0  0  0  # atno 4667 bound_to 548 
   -0.4413   -6.9535  -18.9703 H   0  0  0  0  0  0  0  0  0  0  0  0  # atno 4668 bound_to 548 
   -2.2137  -13.5512   -3.8360 H   0  0  0  0  0  0  0  0  0  0  0  0  # atno 4678 bound_to 575 
   -8.8308   -5.9903   -4.5361 H   0  0  0  0  0  0  0  0  0  0  0  0  # atno 4686 bound_to 605 
  -19.3190  -18.6867   -4.3141 H   0  0  0  0  0  0  0  0  0  0  0  0  # atno 4824 bound_to 729 
  -23.2660   -9.8309    8.8488 H   0  0  0  0  0  0  0  0  0  0  0  0  # atno 4835 bound_to 704 
  -21.6184   -9.6503    8.8543 H   0  0  0  0  0  0  0  0  0  0  0  0  # atno 4836 bound_to 704 
  -22.5117   -9.0677    7.5855 H   0  0  0  0  0  0  0  0  0  0  0  0  # atno 4837 bound_to 704 
  -20.0518  -17.0496    6.2213 H   0  0  0  0  0  0  0  0  0  0  0  0  # atno 4838 bound_to 710 
   -4.3875   -9.1844   -1.0801 H   0  0  0  0  0  0  0  0  0  0  0  0  # atno 4915 bound_to 800 
   -5.2387   -9.2865   -2.4987 H   0  0  0  0  0  0  0  0  0  0  0  0  # atno 4916 bound_to 800 
   -6.0064   -8.8293   -1.1028 H   0  0  0  0  0  0  0  0  0  0  0  0  # atno 4917 bound_to 800 
   -4.6681  -16.4966    1.3990 H   0  0  0  0  0  0  0  0  0  0  0  0  # atno 4957 bound_to 836 
  -10.1433  -26.9034    1.8657 H   0  0  0  0  0  0  0  0  0  0  0  0  # atno 4974 bound_to 871 
   -5.0219  -20.6268    0.6651 H   0  0  0  0  0  0  0  0  0  0  0  0  # atno 4995 bound_to 858 
   -2.2741  -29.3068   -0.1961 H   0  0  0  0  0  0  0  0  0  0  0  0  # atno 5014 bound_to 889 
   -4.1487  -29.9790    4.5336 H   0  0  0  0  0  0  0  0  0  0  0  0  # atno 5020 bound_to 909 
   -4.2741  -31.6314    4.5691 H   0  0  0  0  0  0  0  0  0  0  0  0  # atno 5021 bound_to 909 
   -2.8071  -30.9056    4.8316 H   0  0  0  0  0  0  0  0  0  0  0  0  # atno 5022 bound_to 909 
    0.2301  -31.5140   -5.9132 H   0  0  0  0  0  0  0  0  0  0  0  0  # atno 5024 bound_to 896 
    1.2224  -42.0496   -6.8207 H   0  0  0  0  0  0  0  0  0  0  0  0  # atno 5045 bound_to 926 
    1.4428  -40.7131   -5.8657 H   0  0  0  0  0  0  0  0  0  0  0  0  # atno 5046 bound_to 926 
    1.3196  -42.2144   -5.1743 H   0  0  0  0  0  0  0  0  0  0  0  0  # atno 5047 bound_to 926 
  -18.4681  -42.2223    1.3419 H   0  0  0  0  0  0  0  0  0  0  0  0  # atno 5110 bound_to 999 
   -3.5535  -33.7988   -8.8941 H   0  0  0  0  0  0  0  0  0  0  0  0  # atno 5449 bound_to 2520
  -17.5098  -32.3300  -24.2394 H   0  0  0  0  0  0  0  0  0  0  0  0  # atno 5579 bound_to 2649
  -18.0916  -26.9031    5.1138 H   0  0  0  0  0  0  0  0  0  0  0  0  # atno 5891 bound_to 2137
  -29.4919  -31.9163   -8.1395 H   0  0  0  0  0  0  0  0  0  0  0  0  # atno 5969 bound_to 2204
  -17.9272  -30.6204  -10.1062 H   0  0  0  0  0  0  0  0  0  0  0  0  # atno 5980 bound_to 2226
  -25.3790  -32.1816  -12.2259 H   0  0  0  0  0  0  0  0  0  0  0  0  # atno 5981 bound_to 2233
  -25.3813  -27.8939  -14.2531 H   0  0  0  0  0  0  0  0  0  0  0  0  # atno 5987 bound_to 2239
  -21.6455  -26.0313  -10.0570 H   0  0  0  0  0  0  0  0  0  0  0  0  # atno 5994 bound_to 2219
  -25.1609  -34.6765  -16.0001 H   0  0  0  0  0  0  0  0  0  0  0  0  # atno 6016 bound_to 2260
  -26.6269  -32.0759  -29.8142 H   0  0  0  0  0  0  0  0  0  0  0  0  # atno 6052 bound_to 2299
  -32.6743  -34.2677  -13.1496 H   0  0  0  0  0  0  0  0  0  0  0  0  # atno 6101 bound_to 1163
  -34.0161  -33.3940  -13.5776 H   0  0  0  0  0  0  0  0  0  0  0  0  # atno 6102 bound_to 1163
  -33.5807  -34.7290  -14.4583 H   0  0  0  0  0  0  0  0  0  0  0  0  # atno 6103 bound_to 1163
  -16.0607  -39.0945   -9.3062 H   0  0  0  0  0  0  0  0  0  0  0  0  # atno 6146 bound_to 1210
  -20.1988  -35.3574   -9.5024 H   0  0  0  0  0  0  0  0  0  0  0  0  # atno 6164 bound_to 1216
  -22.2074  -37.3145    0.4313 H   0  0  0  0  0  0  0  0  0  0  0  0  # atno 6188 bound_to 1253
  -16.2146  -38.7868   -0.3467 H   0  0  0  0  0  0  0  0  0  0  0  0  # atno 6192 bound_to 1260
  -15.7177  -35.5037   -1.2739 H   0  0  0  0  0  0  0  0  0  0  0  0  # atno 6196 bound_to 1266
  -15.1140  -31.4600    0.2875 H   0  0  0  0  0  0  0  0  0  0  0  0  # atno 6224 bound_to 1273
  -27.0090  -38.6704   -4.1886 H   0  0  0  0  0  0  0  0  0  0  0  0  # atno 6261 bound_to 1325
  -28.6549  -30.1437   -0.8941 H   0  0  0  0  0  0  0  0  0  0  0  0  # atno 6346 bound_to 1421
  -39.5317  -29.2500   -3.1817 H   0  0  0  0  0  0  0  0  0  0  0  0  # atno 6390 bound_to 1440
  -38.5064  -29.2765   -1.8797 H   0  0  0  0  0  0  0  0  0  0  0  0  # atno 6391 bound_to 1440
  -39.0087  -27.8280   -2.5098 H   0  0  0  0  0  0  0  0  0  0  0  0  # atno 6392 bound_to 1440
  -16.4825  -15.6853  -19.2331 H   0  0  0  0  0  0  0  0  0  0  0  0  # atno 6753 bound_to 2927
  -23.4781  -21.2571  -27.6096 H   0  0  0  0  0  0  0  0  0  0  0  0  # atno 6754 bound_to 2939
   -2.5907  -14.6389  -16.6577 H   0  0  0  0  0  0  0  0  0  0  0  0  # atno 7039 bound_to 3213
  -11.2704  -26.5248  -21.4326 H   0  0  0  0  0  0  0  0  0  0  0  0  # atno 7043 bound_to 3233
  -11.7490  -17.4184  -18.8655 H   0  0  0  0  0  0  0  0  0  0  0  0  # atno 7058 bound_to 3239
   -5.4168  -15.9400  -15.9779 H   0  0  0  0  0  0  0  0  0  0  0  0  # atno 7061 bound_to 3268
  -33.7055  -22.2091  -19.4657 H   0  0  0  0  0  0  0  0  0  0  0  0  # atno 7427 bound_to 3594
   -3.1343   -5.0063  -18.4090 LP  0  0  0  0  0  0  0  0  0  0  0  0  # atno 7653 bound_to 516 
   -4.0633   -6.0433  -19.2623 LP  0  0  0  0  0  0  0  0  0  0  0  0  # atno 7654 bound_to 516 
   -1.6550  -13.5193   -5.3640 LP  0  0  0  0  0  0  0  0  0  0  0  0  # atno 7673 bound_to 575 
   -3.2257  -13.8580   -5.0728 LP  0  0  0  0  0  0  0  0  0  0  0  0  # atno 7674 bound_to 575 
   -9.3919   -5.8952   -6.0607 LP  0  0  0  0  0  0  0  0  0  0  0  0  # atno 7679 bound_to 605 
   -8.3227   -7.0599   -5.6523 LP  0  0  0  0  0  0  0  0  0  0  0  0  # atno 7680 bound_to 605 
  -21.0396  -15.7640    6.0814 LP  0  0  0  0  0  0  0  0  0  0  0  0  # atno 7707 bound_to 710 
  -20.2852  -16.0674    7.4975 LP  0  0  0  0  0  0  0  0  0  0  0  0  # atno 7708 bound_to 710 
  -19.3536  -17.2553   -3.5409 LP  0  0  0  0  0  0  0  0  0  0  0  0  # atno 7715 bound_to 729 
  -18.6927  -18.5615   -2.8174 LP  0  0  0  0  0  0  0  0  0  0  0  0  # atno 7716 bound_to 729 
   -3.3505  -16.2964    2.3326 LP  0  0  0  0  0  0  0  0  0  0  0  0  # atno 7757 bound_to 836 
   -4.7431  -15.5294    2.7054 LP  0  0  0  0  0  0  0  0  0  0  0  0  # atno 7758 bound_to 836 
   -6.3200  -20.7834   -0.3037 LP  0  0  0  0  0  0  0  0  0  0  0  0  # atno 7765 bound_to 858 
   -4.9105  -20.2210   -0.9068 LP  0  0  0  0  0  0  0  0  0  0  0  0  # atno 7766 bound_to 858 
   -8.6212  -27.0637    2.4185 LP  0  0  0  0  0  0  0  0  0  0  0  0  # atno 7771 bound_to 871 
   -9.6423  -28.3377    2.4488 LP  0  0  0  0  0  0  0  0  0  0  0  0  # atno 7772 bound_to 871 
   -3.3552  -28.8199   -1.3105 LP  0  0  0  0  0  0  0  0  0  0  0  0  # atno 7777 bound_to 889 
   -1.8382  -28.2156   -1.3218 LP  0  0  0  0  0  0  0  0  0  0  0  0  # atno 7778 bound_to 889 
    1.2754  -32.7608   -5.8886 LP  0  0  0  0  0  0  0  0  0  0  0  0  # atno 7781 bound_to 896 
    0.3397  -32.4502   -4.5868 LP  0  0  0  0  0  0  0  0  0  0  0  0  # atno 7782 bound_to 896 
  -19.9078  -42.9604    1.1669 LP  0  0  0  0  0  0  0  0  0  0  0  0  # atno 7807 bound_to 999 
  -19.7666  -41.3601    0.8741 LP  0  0  0  0  0  0  0  0  0  0  0  0  # atno 7808 bound_to 999 
  -16.0956  -40.4298  -10.2356 LP  0  0  0  0  0  0  0  0  0  0  0  0  # atno 7831 bound_to 1210
  -15.9356  -40.5628   -8.6159 LP  0  0  0  0  0  0  0  0  0  0  0  0  # atno 7832 bound_to 1210
  -21.5883  -34.6743  -10.0032 LP  0  0  0  0  0  0  0  0  0  0  0  0  # atno 7835 bound_to 1216
  -21.5340  -36.2722   -9.6711 LP  0  0  0  0  0  0  0  0  0  0  0  0  # atno 7836 bound_to 1216
  -20.8543  -37.8741    1.1413 LP  0  0  0  0  0  0  0  0  0  0  0  0  # atno 7851 bound_to 1253
  -20.7595  -37.0367   -0.2574 LP  0  0  0  0  0  0  0  0  0  0  0  0  # atno 7852 bound_to 1253
  -17.8375  -38.7034   -0.4327 LP  0  0  0  0  0  0  0  0  0  0  0  0  # atno 7855 bound_to 1260
  -17.0855  -40.1502   -0.5222 LP  0  0  0  0  0  0  0  0  0  0  0  0  # atno 7856 bound_to 1260
  -14.7093  -34.5932   -2.1697 LP  0  0  0  0  0  0  0  0  0  0  0  0  # atno 7859 bound_to 1266
  -15.1058  -34.1286   -0.6553 LP  0  0  0  0  0  0  0  0  0  0  0  0  # atno 7860 bound_to 1266
  -16.7375  -31.4141    0.1853 LP  0  0  0  0  0  0  0  0  0  0  0  0  # atno 7863 bound_to 1273
  -15.9595  -32.8492    0.2291 LP  0  0  0  0  0  0  0  0  0  0  0  0  # atno 7864 bound_to 1273
  -27.3775  -37.8441   -2.8360 LP  0  0  0  0  0  0  0  0  0  0  0  0  # atno 7873 bound_to 1325
  -28.0914  -39.2813   -3.1383 LP  0  0  0  0  0  0  0  0  0  0  0  0  # atno 7874 bound_to 1325
  -27.0590  -29.8366   -0.9767 LP  0  0  0  0  0  0  0  0  0  0  0  0  # atno 7885 bound_to 1421
  -27.6602  -31.2212   -1.5996 LP  0  0  0  0  0  0  0  0  0  0  0  0  # atno 7886 bound_to 1421
  -31.6026  -21.6533    4.0799 LP  0  0  0  0  0  0  0  0  0  0  0  0  # atno 7921 bound_to 1750
  -30.6887  -20.3007    4.1229 LP  0  0  0  0  0  0  0  0  0  0  0  0  # atno 7922 bound_to 1750
  -19.2085  -27.2653    6.2406 LP  0  0  0  0  0  0  0  0  0  0  0  0  # atno 7971 bound_to 2137
  -18.8553  -25.7060    5.9086 LP  0  0  0  0  0  0  0  0  0  0  0  0  # atno 7972 bound_to 2137
  -29.5403  -33.2177   -7.1638 LP  0  0  0  0  0  0  0  0  0  0  0  0  # atno 7989 bound_to 2204
  -28.8904  -33.3370   -8.6572 LP  0  0  0  0  0  0  0  0  0  0  0  0  # atno 7990 bound_to 2204
  -20.1962  -25.3025   -9.9286 LP  0  0  0  0  0  0  0  0  0  0  0  0  # atno 7999 bound_to 2219
  -20.5696  -26.5606   -8.9568 LP  0  0  0  0  0  0  0  0  0  0  0  0  # atno 8000 bound_to 2219
  -17.3331  -32.0233   -9.5344 LP  0  0  0  0  0  0  0  0  0  0  0  0  # atno 8003 bound_to 2226
  -18.4674  -31.2085   -8.6883 LP  0  0  0  0  0  0  0  0  0  0  0  0  # atno 8004 bound_to 2226
  -24.2027  -31.4679  -11.3569 LP  0  0  0  0  0  0  0  0  0  0  0  0  # atno 8007 bound_to 2233
  -25.3577  -32.3456  -10.6070 LP  0  0  0  0  0  0  0  0  0  0  0  0  # atno 8008 bound_to 2233
  -25.3805  -29.3606  -13.5483 LP  0  0  0  0  0  0  0  0  0  0  0  0  # atno 8011 bound_to 2239
  -25.9558  -29.1812  -15.0661 LP  0  0  0  0  0  0  0  0  0  0  0  0  # atno 8012 bound_to 2239
  -25.8947  -35.6235  -17.1014 LP  0  0  0  0  0  0  0  0  0  0  0  0  # atno 8019 bound_to 2260
  -26.6667  -34.3159  -16.5007 LP  0  0  0  0  0  0  0  0  0  0  0  0  # atno 8020 bound_to 2260
  -27.7761  -31.3423  -28.9258 LP  0  0  0  0  0  0  0  0  0  0  0  0  # atno 8029 bound_to 2299
  -28.0158  -32.8576  -29.4852 LP  0  0  0  0  0  0  0  0  0  0  0  0  # atno 8030 bound_to 2299
   -1.9380  -33.9444   -8.7632 LP  0  0  0  0  0  0  0  0  0  0  0  0  # atno 8039 bound_to 2520
   -2.8689  -33.9110   -7.4220 LP  0  0  0  0  0  0  0  0  0  0  0  0  # atno 8040 bound_to 2520
  -17.0525  -32.7473  -22.7344 LP  0  0  0  0  0  0  0  0  0  0  0  0  # atno 8071 bound_to 2649
  -16.0218  -31.9385  -23.7091 LP  0  0  0  0  0  0  0  0  0  0  0  0  # atno 8072 bound_to 2649
  -15.0376  -15.6183  -19.9787 LP  0  0  0  0  0  0  0  0  0  0  0  0  # atno 8115 bound_to 2927
  -15.3517  -16.8089  -18.9062 LP  0  0  0  0  0  0  0  0  0  0  0  0  # atno 8116 bound_to 2927
  -24.5984  -20.0790  -27.5372 LP  0  0  0  0  0  0  0  0  0  0  0  0  # atno 8119 bound_to 2939
  -24.6482  -21.3231  -26.4806 LP  0  0  0  0  0  0  0  0  0  0  0  0  # atno 8120 bound_to 2939
   -1.4338  -14.2417  -17.7310 LP  0  0  0  0  0  0  0  0  0  0  0  0  # atno 8148 bound_to 3213
   -1.8670  -15.8038  -17.5337 LP  0  0  0  0  0  0  0  0  0  0  0  0  # atno 8149 bound_to 3213
  -12.4049  -26.3622  -22.5880 LP  0  0  0  0  0  0  0  0  0  0  0  0  # atno 8154 bound_to 3233
  -12.6181  -25.6656  -21.1265 LP  0  0  0  0  0  0  0  0  0  0  0  0  # atno 8155 bound_to 3233
  -10.6296  -17.5552  -20.0387 LP  0  0  0  0  0  0  0  0  0  0  0  0  # atno 8158 bound_to 3239
  -10.3492  -16.5972  -18.7463 LP  0  0  0  0  0  0  0  0  0  0  0  0  # atno 8159 bound_to 3239
   -5.3182  -17.3036  -15.0955 LP  0  0  0  0  0  0  0  0  0  0  0  0  # atno 8168 bound_to 3268
   -5.5215  -15.8620  -14.3559 LP  0  0  0  0  0  0  0  0  0  0  0  0  # atno 8169 bound_to 3268
  -32.6566  -21.0649  -18.9774 LP  0  0  0  0  0  0  0  0  0  0  0  0  # atno 8218 bound_to 3594
  -32.9259  -22.3801  -18.0476 LP  0  0  0  0  0  0  0  0  0  0  0  0  # atno 8219 bound_to 3594

> <Gold.Score>
     Score     S(PLP)   S(hbond)     S(cho)   S(metal)  DE(clash)   DE(tors)     intcor
     84.44     -82.76       1.00       0.00       0.00       0.00       1.00       0.68

> <Gold.PLP.Fitness>
84.4393

> <Gold.PLP.PLP>
-82.7641

> <Gold.PLP.part.hbond>
-1.0000

> <Gold.PLP.part.metal>
0.0000

> <Gold.PLP.part.buried>
-4.5560

> <Gold.PLP.part.nonpolar>
-77.8049

> <Gold.PLP.part.repulsive>
0.0000

> <Gold.PLP.ligand.clash>
0.0000

> <Gold.PLP.ligand.torsion>
1.0029

> <Gold.PLP.Chemscore.Hbond>
1.0000

> <Gold.PLP.Chemscore.CHOScore>
0.0000

> <Gold.PLP.Chemscore.Metal>
0.0000

> <Gold.Chemscore.Hbonds>
donor molecule, donor type, donor heavy atom, donor atom, acceptor molecule, acceptor atom, score
      P1  H   729  4824       L1    12  1.00

> <Gold.PLP.Chemscore.Internal.Correction>
0.6811

