#       Name:                _i001
#       Creating user name   gordoncs
#       Creation time:       Sat Jan 29 12:19:02 2022


#       File generated by GOLD software.
#

@<TRIPOS>MOLECULE
_i001|batch_4|mol2|1|dock177
    98   101     1
SMALL
NO_CHARGES


@<TRIPOS>ATOM
      1 C1         -26.6528 -15.8250 -14.8006 C.3            1 <1>                0.0000
      2 C2         -26.5865 -17.0870 -13.9382 C.3            1 <1>                0.0000
      3 C3         -25.4799 -18.0049 -14.4617 C.3            1 <1>                0.0000
      4 C4         -26.2893 -16.7053 -12.5110 C.2            1 <1>                0.0000
      5 N5         -26.0495 -15.5052 -12.1021 N.2            1 <1>                0.0000
      6 C6         -25.8080 -15.3455 -10.8165 C.2            1 <1>                0.0000
      7 C7         -25.8413 -16.4744 -10.1020 C.2            1 <1>                0.0000
      8 S8         -26.2210 -17.7997 -11.1993 S.3            1 <1>                0.0000
      9 C9         -25.5122 -14.0011 -10.2034 C.3            1 <1>                0.0000
     10 N10        -24.6591 -13.2282 -11.1095 N.am           1 <1>                0.0000
     11 C11        -25.2469 -12.1957 -11.9665 C.3            1 <1>                0.0000
     12 C12        -23.3334 -13.4672 -11.1548 C.2            1 <1>                0.0000
     13 O13        -22.6732 -13.0564 -12.0895 O.2            1 <1>                0.0000
     14 N14        -22.7396 -14.1615 -10.1640 N.am           1 <1>                0.0000
     15 C15        -21.2986 -14.4213 -10.2133 C.3            1 <1>                0.0000
     16 H16        -20.9802 -14.5069 -11.2523 H              1 <1>                0.0000
     17 C17        -20.5492 -13.2677  -9.5437 C.3            1 <1>                0.0000
     18 C18        -20.8740 -11.9598 -10.2683 C.3            1 <1>                0.0000
     19 C19        -20.9810 -13.1605  -8.0798 C.3            1 <1>                0.0000
     20 C20        -20.9947 -15.7064  -9.4872 C.2            1 <1>                0.0000
     21 O21        -21.8849 -16.4963  -9.2540 O.2            1 <1>                0.0000
     22 N22        -19.7335 -15.9779  -9.0971 N.am           1 <1>                0.0000
     23 C23        -19.4147 -17.2783  -8.5024 C.3            1 <1>                0.0000
     24 H24        -20.2123 -17.9862  -8.7276 H              1 <1>                0.0000
     25 C25        -18.0960 -17.7945  -9.0817 C.3            1 <1>                0.0000
     26 C26        -18.3672 -18.5357 -10.3654 C.ar           1 <1>                0.0000
     27 C27        -18.7146 -19.8733 -10.3311 C.ar           1 <1>                0.0000
     28 C28        -18.9628 -20.5534 -11.5086 C.ar           1 <1>                0.0000
     29 C29        -18.8640 -19.8959 -12.7206 C.ar           1 <1>                0.0000
     30 C30        -18.5116 -18.5597 -12.7552 C.ar           1 <1>                0.0000
     31 C31        -18.2683 -17.8783 -11.5773 C.ar           1 <1>                0.0000
     32 C32        -19.2807 -17.1264  -6.9859 C.3            1 <1>                0.0000
     33 C33        -20.6332 -16.7277  -6.3919 C.3            1 <1>                0.0000
     34 H34        -21.1414 -16.0441  -7.0719 H              1 <1>                0.0000
     35 C35        -21.4908 -17.9789  -6.1911 C.3            1 <1>                0.0000
     36 H36        -21.8411 -18.3383  -7.1587 H              1 <1>                0.0000
     37 C37        -22.6929 -17.6370  -5.3085 C.3            1 <1>                0.0000
     38 C38        -23.4714 -18.8928  -5.0117 C.ar           1 <1>                0.0000
     39 C39        -23.6739 -19.2872  -3.7024 C.ar           1 <1>                0.0000
     40 C40        -24.3921 -20.4365  -3.4300 C.ar           1 <1>                0.0000
     41 C41        -24.8991 -21.1968  -4.4672 C.ar           1 <1>                0.0000
     42 C42        -24.6921 -20.8051  -5.7766 C.ar           1 <1>                0.0000
     43 C43        -23.9784 -19.6530  -6.0489 C.ar           1 <1>                0.0000
     44 N44        -20.6901 -19.0209  -5.5437 N.am           1 <1>                0.0000
     45 C45        -20.6973 -20.2772  -6.0320 C.2            1 <1>                0.0000
     46 O46        -21.3677 -20.5453  -7.0092 O.2            1 <1>                0.0000
     47 O47        -19.9614 -21.2349  -5.4370 O.3            1 <1>                0.0000
     48 C48        -20.1828 -22.6022  -5.8725 C.3            1 <1>                0.0000
     49 C49        -19.4740 -22.8332  -7.1822 C.2            1 <1>                0.0000
     50 C50        -18.1506 -22.8557  -7.3666 C.2            1 <1>                0.0000
     51 N51        -17.7758 -23.0819  -8.6096 N.2            1 <1>                0.0000
     52 C52        -18.7095 -23.2413  -9.4858 C.2            1 <1>                0.0000
     53 S53        -20.2437 -23.1140  -8.7421 S.3            1 <1>                0.0000
     54 O54        -20.4292 -16.0832  -5.1329 O.3            1 <1>                0.0000
     55 H55        -26.8678 -16.1011 -15.8329 H              1 <1>                0.0000
     56 H56        -27.4411 -15.1710 -14.4277 H              1 <1>                0.0000
     57 H57        -25.6967 -15.3036 -14.7556 H              1 <1>                0.0000
     58 H58        -27.5427 -17.6084 -13.9832 H              1 <1>                0.0000
     59 H59        -25.4327 -18.9040 -13.8474 H              1 <1>                0.0000
     60 H60        -25.6949 -18.2810 -15.4940 H              1 <1>                0.0000
     61 H61        -24.5238 -17.4835 -14.4167 H              1 <1>                0.0000
     62 H62        -25.6678 -16.5591  -9.0394 H              1 <1>                0.0000
     63 H63        -24.9991 -14.1406  -9.2519 H              1 <1>                0.0000
     64 H64        -26.4461 -13.4642 -10.0372 H              1 <1>                0.0000
     65 H65        -25.5439 -12.6385 -12.9173 H              1 <1>                0.0000
     66 H66        -26.1217 -11.7702 -11.4749 H              1 <1>                0.0000
     67 H67        -24.5125 -11.4103 -12.1451 H              1 <1>                0.0000
     68 H68        -23.2662 -14.4893  -9.4184 H              1 <1>                0.0000
     69 H69        -19.4764 -13.4538  -9.5934 H              1 <1>                0.0000
     70 H70        -21.9494 -11.7847 -10.2373 H              1 <1>                0.0000
     71 H71        -20.3573 -11.1348  -9.7779 H              1 <1>                0.0000
     72 H72        -20.5468 -12.0282 -11.3057 H              1 <1>                0.0000
     73 H73        -20.7495 -14.0922  -7.5636 H              1 <1>                0.0000
     74 H74        -20.4470 -12.3386  -7.6028 H              1 <1>                0.0000
     75 H75        -22.0538 -12.9744  -8.0300 H              1 <1>                0.0000
     76 H76        -19.0369 -15.3125  -9.2101 H              1 <1>                0.0000
     77 H77        -17.6238 -18.4678  -8.3662 H              1 <1>                0.0000
     78 H78        -17.4326 -16.9530  -9.2812 H              1 <1>                0.0000
     79 H79        -18.7914 -20.3872  -9.3842 H              1 <1>                0.0000
     80 H80        -19.2339 -21.5986 -11.4818 H              1 <1>                0.0000
     81 H81        -19.0577 -20.4273 -13.6406 H              1 <1>                0.0000
     82 H82        -18.4299 -18.0472 -13.7023 H              1 <1>                0.0000
     83 H83        -17.9966 -16.8334 -11.6042 H              1 <1>                0.0000
     84 H84        -18.9588 -18.0735  -6.5528 H              1 <1>                0.0000
     85 H85        -18.5438 -16.3551  -6.7616 H              1 <1>                0.0000
     86 H86        -22.3441 -17.1964  -4.3745 H              1 <1>                0.0000
     87 H87        -23.3347 -16.9259  -5.8283 H              1 <1>                0.0000
     88 H88        -23.2740 -18.6956  -2.8922 H              1 <1>                0.0000
     89 H89        -24.5535 -20.7427  -2.4069 H              1 <1>                0.0000
     90 H90        -25.4564 -22.0972  -4.2545 H              1 <1>                0.0000
     91 H91        -25.0878 -21.3993  -6.5869 H              1 <1>                0.0000
     92 H92        -23.8164 -19.3472  -7.0719 H              1 <1>                0.0000
     93 H93        -20.1549 -18.8069  -4.7636 H              1 <1>                0.0000
     94 H94        -19.7932 -23.2902  -5.1222 H              1 <1>                0.0000
     95 H95        -21.2514 -22.7736  -6.0025 H              1 <1>                0.0000
     96 H96        -17.4459 -22.7040  -6.5624 H              1 <1>                0.0000
     97 H97        -18.5455 -23.4276 -10.5369 H              1 <1>                0.0000
     98 H98        -20.0979 -16.6703  -4.4395 H              1 <1>                0.0000
@<TRIPOS>BOND
    1    1    2 1     
    2    1   55 1     
    3    1   56 1     
    4    1   57 1     
    5    2    3 1     
    6    2    4 1     
    7    2   58 1     
    8    3   59 1     
    9    3   60 1     
   10    3   61 1     
   11    4    8 1     
   12    4    5 2     
   13    5    6 1     
   14    6    7 2     
   15    6    9 1     
   16    7    8 1     
   17    7   62 1     
   18    9   10 1     
   19    9   63 1     
   20    9   64 1     
   21   10   11 1     
   22   10   12 am    
   23   11   65 1     
   24   11   66 1     
   25   11   67 1     
   26   12   13 2     
   27   12   14 am    
   28   14   15 1     
   29   14   68 1     
   30   15   16 1     
   31   15   17 1     
   32   15   20 1     
   33   17   18 1     
   34   17   19 1     
   35   17   69 1     
   36   18   70 1     
   37   18   71 1     
   38   18   72 1     
   39   19   73 1     
   40   19   74 1     
   41   19   75 1     
   42   20   21 2     
   43   20   22 am    
   44   22   23 1     
   45   22   76 1     
   46   23   24 1     
   47   23   25 1     
   48   23   32 1     
   49   25   26 1     
   50   25   77 1     
   51   25   78 1     
   52   26   31 ar    
   53   26   27 ar    
   54   27   28 ar    
   55   27   79 1     
   56   28   29 ar    
   57   28   80 1     
   58   29   30 ar    
   59   29   81 1     
   60   30   31 ar    
   61   30   82 1     
   62   31   83 1     
   63   32   33 1     
   64   32   84 1     
   65   32   85 1     
   66   33   34 1     
   67   33   35 1     
   68   33   54 1     
   69   35   36 1     
   70   35   37 1     
   71   35   44 1     
   72   37   38 1     
   73   37   86 1     
   74   37   87 1     
   75   38   43 ar    
   76   38   39 ar    
   77   39   40 ar    
   78   39   88 1     
   79   40   41 ar    
   80   40   89 1     
   81   41   42 ar    
   82   41   90 1     
   83   42   43 ar    
   84   42   91 1     
   85   43   92 1     
   86   44   45 am    
   87   44   93 1     
   88   45   46 2     
   89   45   47 1     
   90   47   48 1     
   91   48   49 1     
   92   48   94 1     
   93   48   95 1     
   94   49   53 1     
   95   49   50 2     
   96   50   51 1     
   97   50   96 1     
   98   51   52 2     
   99   52   53 1     
  100   52   97 1     
  101   54   98 1     
@<TRIPOS>SUBSTRUCTURE
      1 ****           1
@<TRIPOS>SET
DONOR_HYDROGENS      STATIC     ATOMS    <user>   **** ""
4 68 76 93 98
ATOM$RED        STATIC     ATOMS    COLORGROUP SYSTEM
4 68 76 93 98
@<TRIPOS>COMMENT
> <Gold.Version>
2021.1.0

> <Gold.Id.Protein>
5VC0|5VC0_protein|mol2

> <Gold.Protein.RotatedTorsions>
[ 4586  510  509  508 ] final -130.93 input   60.00 | X-H torsion
[ 4648  516  515  512 ] final  -55.03 input   60.00 | X-H torsion
[ 4666  548  547  546 ] final   89.62 input   60.00 | X-H torsion
[ 4678  575  574  572 ] final   52.01 input   60.00 | X-H torsion
[ 4686  605  604  601 ] final  -44.64 input   60.00 | X-H torsion
[ 4835  704  703  702 ] final -139.99 input   60.00 | X-H torsion
[ 4838  710  709  706 ] final  -98.59 input   60.00 | X-H torsion
[ 4824  729  728  725 ] final  -31.61 input   60.00 | X-H torsion
[ 4915  800  799  798 ] final -163.45 input   60.00 | X-H torsion
[ 4957  836  835  832 ] final -166.20 input   60.00 | X-H torsion
[ 4995  858  857  854 ] final  -37.83 input   60.00 | X-H torsion
[ 4974  871  870  867 ] final  -14.03 input   60.00 | X-H torsion
[ 5014  889  888  885 ] final   37.95 input   60.00 | X-H torsion
[ 5024  896  895  892 ] final -171.68 input   60.00 | X-H torsion
[ 5020  909  908  907 ] final  -35.39 input   60.00 | X-H torsion
[ 5045  926  925  924 ] final  160.07 input   60.00 | X-H torsion
[ 5110  999  998  996 ] final -110.40 input   60.00 | X-H torsion
[ 6101 1163 1162 1161 ] final  -78.13 input   59.99 | X-H torsion
[ 6146 1210 1209 1207 ] final  -75.20 input   60.00 | X-H torsion
[ 6164 1216 1215 1212 ] final  168.28 input   60.00 | X-H torsion
[ 6188 1253 1252 1249 ] final  -56.65 input   60.00 | X-H torsion
[ 6192 1260 1259 1256 ] final  165.45 input   60.00 | X-H torsion
[ 6196 1266 1265 1262 ] final   14.44 input   60.00 | X-H torsion
[ 6224 1273 1272 1269 ] final   29.98 input   60.00 | X-H torsion
[ 6261 1325 1324 1321 ] final  -42.57 input   60.00 | X-H torsion
[ 6346 1421 1420 1417 ] final   -3.63 input   60.00 | X-H torsion
[ 6390 1440 1439 1438 ] final  -87.64 input   60.00 | X-H torsion
[ 4037 1750 1749 1746 ] final -173.55 input   60.00 | X-H torsion
[ 5891 2137 2136 2133 ] final   48.52 input   60.00 | X-H torsion
[ 5969 2204 2203 2201 ] final  -75.98 input   60.00 | X-H torsion
[ 5994 2219 2218 2215 ] final  -98.36 input   60.01 | X-H torsion
[ 5980 2226 2225 2222 ] final  112.79 input   60.00 | X-H torsion
[ 5981 2233 2232 2229 ] final   98.30 input   59.99 | X-H torsion
[ 5987 2239 2238 2235 ] final  -94.49 input   60.00 | X-H torsion
[ 6016 2260 2259 2256 ] final   16.45 input   59.99 | X-H torsion
[ 6052 2299 2298 2296 ] final  137.17 input   60.00 | X-H torsion
[ 5449 2520 2519 2517 ] final -163.93 input   60.00 | X-H torsion
[ 5579 2649 2648 2645 ] final  156.57 input   60.00 | X-H torsion
[ 6753 2927 2926 2923 ] final  -72.70 input   60.00 | X-H torsion
[ 6754 2939 2938 2936 ] final  -60.16 input   60.00 | X-H torsion
[ 7039 3213 3212 3210 ] final  -47.65 input   60.00 | X-H torsion
[ 7043 3233 3232 3230 ] final   41.63 input   60.00 | X-H torsion
[ 7058 3239 3238 3235 ] final  122.47 input   60.00 | X-H torsion
[ 7061 3268 3267 3264 ] final  146.61 input   60.00 | X-H torsion
[ 7427 3594 3593 3590 ] final  -95.88 input   60.00 | X-H torsion

> <Gold.Protein.ActiveResidues>
 PHE57   CYS58   ASP61   VAL81   ILE84   ILE90   LYS91   THR92   VAL93   LEU94  
 VAL95   LYS96   GLU97   CYS98   TYR99   PHE102  THR103  ASN104  ARG105  ARG106 
 PRO107  PHE108  GLY109  PRO110  VAL111  PHE113  MET114  LYS115  SER116  ALA117 
 ILE118  SER119  ILE120  ALA121  GLU122  ASP123  GLU124  GLU125  TRP126  LYS127 
 ARG128  LEU129  ARG130  SER131  LEU132  LEU133  SER134  PRO135  THR136  PHE137 
 THR138  SER139  GLY140  LYS141  LEU142  LYS143  GLU144  MET145  VAL146  ILE148 
 ILE149  TYR152  LEU156  LEU172  LYS173  ASP174  VAL175  PHE176  GLY177  ALA178 
 TYR179  SER180  MET181  ASP182  VAL183  ILE184  THR185  SER186  THR187  SER188 
 PHE189  GLY190  ILE193  SER195  PHE203  VAL204  ASN206  THR207  LYS208  LYS209 
 LEU210  LEU211  ARG212  PHE213  ASP214  PHE215  PHE220  CYS239  VAL240  PHE241 
 PRO242  VAL245  THR246  PHE248  LEU249  VAL253  VAL269  ASP270  PHE271  LEU272 
 GLN273  LEU274  MET275  LEU290  LEU293  GLU294  LEU295  VAL296  ALA297  GLN298 
 SER299  ILE300  ILE301  PHE302  ILE303  PHE304  ALA305  GLY306  TYR307  GLU308 
 THR309  THR310  SER311  SER312  VAL313  LEU314  SER315  PHE316  ILE317  MET318 
 TYR319  GLU320  TYR347  VAL350  LEU351  LEU356  ASP357  MET358  VAL359  VAL360 
 ASN361  GLU362  THR363  LEU364  ARG365  LEU366  PHE367  PRO368  ILE369  ALA370 
 MET371  ARG372  LEU373  GLU374  ARG375  VAL376  VAL393  VAL394  MET395  ILE396 
 PRO397  SER398  TYR399  ALA400  LEU401  HIS402  ARG403  TRP408  PHE414  PHE419 
 ILE427  ASP428  PRO429  TYR430  ILE431  TYR432  THR433  PRO434  PHE435  GLY436 
 SER437  GLY438  PRO439  ARG440  ASN441  CYS442  ILE443  GLY444  MET445  ARG446 
 PHE447  ALA448  LEU449  MET450  ASN451  MET452  LYS453  LEU454  ALA455  LEU456 
 ILE457  LEU477  SER478  GLY480  GLY481  LEU482  LEU483  GLN484  PRO485  VAL493 
 ARG496  HEM601 

> <Gold.Protein.RotatedAtoms>
  -30.6036  -20.2454    4.4074 H   0  0  0  0  0  0  0  0  0  0  0  0  # atno 4037 bound_to 1750
    1.9484  -12.2245  -19.0891 H   0  0  0  0  0  0  0  0  0  0  0  0  # atno 4586 bound_to 510 
    1.0322  -11.1724  -19.9840 H   0  0  0  0  0  0  0  0  0  0  0  0  # atno 4587 bound_to 510 
    1.7996  -10.6438  -18.6132 H   0  0  0  0  0  0  0  0  0  0  0  0  # atno 4588 bound_to 510 
   -2.6687   -6.0443  -18.0418 H   0  0  0  0  0  0  0  0  0  0  0  0  # atno 4648 bound_to 516 
    0.2974   -7.1677  -19.1992 H   0  0  0  0  0  0  0  0  0  0  0  0  # atno 4666 bound_to 548 
   -0.0735   -8.7669  -19.4273 H   0  0  0  0  0  0  0  0  0  0  0  0  # atno 4667 bound_to 548 
   -1.2441   -7.7090  -18.9200 H   0  0  0  0  0  0  0  0  0  0  0  0  # atno 4668 bound_to 548 
   -1.4755  -13.4273   -4.5558 H   0  0  0  0  0  0  0  0  0  0  0  0  # atno 4678 bound_to 575 
   -8.4787   -6.9880   -5.9494 H   0  0  0  0  0  0  0  0  0  0  0  0  # atno 4686 bound_to 605 
  -18.7758  -18.0343   -2.7000 H   0  0  0  0  0  0  0  0  0  0  0  0  # atno 4824 bound_to 729 
  -21.8842   -9.8251    9.1243 H   0  0  0  0  0  0  0  0  0  0  0  0  # atno 4835 bound_to 704 
  -22.1025   -9.0660    7.6671 H   0  0  0  0  0  0  0  0  0  0  0  0  # atno 4836 bound_to 704 
  -23.4093   -9.6579    8.4973 H   0  0  0  0  0  0  0  0  0  0  0  0  # atno 4837 bound_to 704 
  -20.9001  -15.5267    6.8988 H   0  0  0  0  0  0  0  0  0  0  0  0  # atno 4838 bound_to 710 
   -5.9108   -9.0786   -2.2128 H   0  0  0  0  0  0  0  0  0  0  0  0  # atno 4915 bound_to 800 
   -5.3979   -8.8716   -0.6502 H   0  0  0  0  0  0  0  0  0  0  0  0  # atno 4916 bound_to 800 
   -4.3239   -9.3500   -1.8184 H   0  0  0  0  0  0  0  0  0  0  0  0  # atno 4917 bound_to 800 
   -3.7556  -15.7744    2.8620 H   0  0  0  0  0  0  0  0  0  0  0  0  # atno 4957 bound_to 836 
   -8.7342  -27.8777    2.6138 H   0  0  0  0  0  0  0  0  0  0  0  0  # atno 4974 bound_to 871 
   -6.2223  -20.6783   -0.6371 H   0  0  0  0  0  0  0  0  0  0  0  0  # atno 4995 bound_to 858 
   -3.3759  -29.0714   -1.0155 H   0  0  0  0  0  0  0  0  0  0  0  0  # atno 5014 bound_to 889 
   -4.6375  -31.1363    4.4794 H   0  0  0  0  0  0  0  0  0  0  0  0  # atno 5020 bound_to 909 
   -3.0484  -31.4770    4.8049 H   0  0  0  0  0  0  0  0  0  0  0  0  # atno 5021 bound_to 909 
   -3.5437  -29.9028    4.6500 H   0  0  0  0  0  0  0  0  0  0  0  0  # atno 5022 bound_to 909 
    1.1144  -32.3554   -6.2468 H   0  0  0  0  0  0  0  0  0  0  0  0  # atno 5024 bound_to 896 
    1.2141  -42.6055   -6.0352 H   0  0  0  0  0  0  0  0  0  0  0  0  # atno 5045 bound_to 926 
    1.3361  -41.1088   -6.7365 H   0  0  0  0  0  0  0  0  0  0  0  0  # atno 5046 bound_to 926 
    1.4347  -41.2626   -5.0891 H   0  0  0  0  0  0  0  0  0  0  0  0  # atno 5047 bound_to 926 
  -19.3923  -43.0994    1.3099 H   0  0  0  0  0  0  0  0  0  0  0  0  # atno 5110 bound_to 999 
   -2.1512  -33.9176   -9.0461 H   0  0  0  0  0  0  0  0  0  0  0  0  # atno 5449 bound_to 2520
  -16.9548  -32.7145  -22.7099 H   0  0  0  0  0  0  0  0  0  0  0  0  # atno 5579 bound_to 2649
  -18.5484  -25.7182    5.5948 H   0  0  0  0  0  0  0  0  0  0  0  0  # atno 5891 bound_to 2137
  -29.6977  -32.6512   -7.1532 H   0  0  0  0  0  0  0  0  0  0  0  0  # atno 5969 bound_to 2204
  -18.4991  -31.1220   -8.7354 H   0  0  0  0  0  0  0  0  0  0  0  0  # atno 5980 bound_to 2226
  -25.5782  -32.3400  -12.0335 H   0  0  0  0  0  0  0  0  0  0  0  0  # atno 5981 bound_to 2233
  -25.8881  -28.6505  -15.1559 H   0  0  0  0  0  0  0  0  0  0  0  0  # atno 5987 bound_to 2239
  -20.8379  -25.2927  -10.2993 H   0  0  0  0  0  0  0  0  0  0  0  0  # atno 5994 bound_to 2219
  -25.1030  -35.3512  -16.4864 H   0  0  0  0  0  0  0  0  0  0  0  0  # atno 6016 bound_to 2260
  -27.1858  -31.2344  -29.1642 H   0  0  0  0  0  0  0  0  0  0  0  0  # atno 6052 bound_to 2299
  -33.1013  -34.9106  -14.1785 H   0  0  0  0  0  0  0  0  0  0  0  0  # atno 6101 bound_to 1163
  -32.9600  -33.7939  -12.9618 H   0  0  0  0  0  0  0  0  0  0  0  0  # atno 6102 bound_to 1163
  -34.2100  -33.6858  -14.0450 H   0  0  0  0  0  0  0  0  0  0  0  0  # atno 6103 bound_to 1163
  -16.1142  -40.1790  -10.3057 H   0  0  0  0  0  0  0  0  0  0  0  0  # atno 6146 bound_to 1210
  -21.6319  -34.7128  -10.0044 H   0  0  0  0  0  0  0  0  0  0  0  0  # atno 6164 bound_to 1216
  -21.0581  -36.9506   -0.3487 H   0  0  0  0  0  0  0  0  0  0  0  0  # atno 6188 bound_to 1253
  -16.8010  -40.1142   -0.5005 H   0  0  0  0  0  0  0  0  0  0  0  0  # atno 6192 bound_to 1260
  -15.5202  -34.6550   -0.4988 H   0  0  0  0  0  0  0  0  0  0  0  0  # atno 6196 bound_to 1266
  -15.6544  -32.7998    0.2504 H   0  0  0  0  0  0  0  0  0  0  0  0  # atno 6224 bound_to 1273
  -27.7176  -39.4006   -3.8166 H   0  0  0  0  0  0  0  0  0  0  0  0  # atno 6261 bound_to 1325
  -28.5451  -29.9582   -0.8152 H   0  0  0  0  0  0  0  0  0  0  0  0  # atno 6346 bound_to 1421
  -38.6168  -29.4948   -2.0210 H   0  0  0  0  0  0  0  0  0  0  0  0  # atno 6390 bound_to 1440
  -38.8362  -27.8741   -2.2908 H   0  0  0  0  0  0  0  0  0  0  0  0  # atno 6391 bound_to 1440
  -39.5939  -28.9857   -3.2593 H   0  0  0  0  0  0  0  0  0  0  0  0  # atno 6392 bound_to 1440
  -14.7763  -16.0619  -19.7648 H   0  0  0  0  0  0  0  0  0  0  0  0  # atno 6753 bound_to 2927
  -23.5398  -21.4898  -27.3637 H   0  0  0  0  0  0  0  0  0  0  0  0  # atno 6754 bound_to 2939
   -1.5993  -15.6186  -17.7725 H   0  0  0  0  0  0  0  0  0  0  0  0  # atno 7039 bound_to 3213
  -11.6576  -26.0978  -20.8923 H   0  0  0  0  0  0  0  0  0  0  0  0  # atno 7043 bound_to 3233
  -11.3542  -16.9369  -18.4313 H   0  0  0  0  0  0  0  0  0  0  0  0  # atno 7058 bound_to 3239
   -5.3399  -16.6011  -16.0482 H   0  0  0  0  0  0  0  0  0  0  0  0  # atno 7061 bound_to 3268
  -32.5140  -21.1796  -18.6377 H   0  0  0  0  0  0  0  0  0  0  0  0  # atno 7427 bound_to 3594
   -3.6316   -5.0056  -18.8431 LP  0  0  0  0  0  0  0  0  0  0  0  0  # atno 7653 bound_to 516 
   -3.8035   -6.6151  -19.0589 LP  0  0  0  0  0  0  0  0  0  0  0  0  # atno 7654 bound_to 516 
   -2.6315  -13.7583   -5.6522 LP  0  0  0  0  0  0  0  0  0  0  0  0  # atno 7673 bound_to 575 
   -2.9926  -13.7439   -4.0597 LP  0  0  0  0  0  0  0  0  0  0  0  0  # atno 7674 bound_to 575 
   -8.6086   -6.2499   -4.5049 LP  0  0  0  0  0  0  0  0  0  0  0  0  # atno 7679 bound_to 605 
   -9.4606   -5.7006   -5.7851 LP  0  0  0  0  0  0  0  0  0  0  0  0  # atno 7680 bound_to 605 
  -19.8926  -16.7722    7.1840 LP  0  0  0  0  0  0  0  0  0  0  0  0  # atno 7707 bound_to 710 
  -20.5778  -16.5930    5.7126 LP  0  0  0  0  0  0  0  0  0  0  0  0  # atno 7708 bound_to 710 
  -19.0764  -19.0224   -3.9575 LP  0  0  0  0  0  0  0  0  0  0  0  0  # atno 7715 bound_to 729 
  -19.5170  -17.4514   -4.0262 LP  0  0  0  0  0  0  0  0  0  0  0  0  # atno 7716 bound_to 729 
   -5.1578  -15.8576    2.0405 LP  0  0  0  0  0  0  0  0  0  0  0  0  # atno 7757 bound_to 836 
   -3.8547  -16.6955    1.5242 LP  0  0  0  0  0  0  0  0  0  0  0  0  # atno 7758 bound_to 836 
   -4.6637  -20.2104   -0.6391 LP  0  0  0  0  0  0  0  0  0  0  0  0  # atno 7765 bound_to 858 
   -5.3578  -20.7422    0.7401 LP  0  0  0  0  0  0  0  0  0  0  0  0  # atno 7766 bound_to 858 
  -10.2812  -27.8959    2.1095 LP  0  0  0  0  0  0  0  0  0  0  0  0  # atno 7771 bound_to 871 
   -9.4013  -26.5243    2.0043 LP  0  0  0  0  0  0  0  0  0  0  0  0  # atno 7772 bound_to 871 
   -2.1462  -28.1498   -1.5509 LP  0  0  0  0  0  0  0  0  0  0  0  0  # atno 7777 bound_to 889 
   -1.9376  -29.1228   -0.2561 LP  0  0  0  0  0  0  0  0  0  0  0  0  # atno 7778 bound_to 889 
    0.7355  -32.8268   -4.7361 LP  0  0  0  0  0  0  0  0  0  0  0  0  # atno 7781 bound_to 896 
   -0.0109  -31.5367   -5.4033 LP  0  0  0  0  0  0  0  0  0  0  0  0  # atno 7782 bound_to 896 
  -20.1688  -41.7418    0.8601 LP  0  0  0  0  0  0  0  0  0  0  0  0  # atno 7807 bound_to 999 
  -18.5751  -41.6955    1.2131 LP  0  0  0  0  0  0  0  0  0  0  0  0  # atno 7808 bound_to 999 
  -15.9451  -40.7552   -8.7932 LP  0  0  0  0  0  0  0  0  0  0  0  0  # atno 7831 bound_to 1210
  -16.0321  -39.1451   -9.0517 LP  0  0  0  0  0  0  0  0  0  0  0  0  # atno 7832 bound_to 1210
  -21.4836  -36.2949   -9.6535 LP  0  0  0  0  0  0  0  0  0  0  0  0  # atno 7835 bound_to 1216
  -20.1955  -35.3007   -9.5154 LP  0  0  0  0  0  0  0  0  0  0  0  0  # atno 7836 bound_to 1216
  -22.1771  -37.4855    0.7047 LP  0  0  0  0  0  0  0  0  0  0  0  0  # atno 7851 bound_to 1253
  -20.5943  -37.7917    0.9648 LP  0  0  0  0  0  0  0  0  0  0  0  0  # atno 7852 bound_to 1253
  -16.3791  -38.5511   -0.3369 LP  0  0  0  0  0  0  0  0  0  0  0  0  # atno 7855 bound_to 1260
  -17.9534  -38.9659   -0.4631 LP  0  0  0  0  0  0  0  0  0  0  0  0  # atno 7856 bound_to 1260
  -15.4215  -35.4856   -1.8946 LP  0  0  0  0  0  0  0  0  0  0  0  0  # atno 7859 bound_to 1266
  -14.5925  -34.0908   -1.7109 LP  0  0  0  0  0  0  0  0  0  0  0  0  # atno 7860 bound_to 1266
  -15.2991  -31.2119    0.2744 LP  0  0  0  0  0  0  0  0  0  0  0  0  # atno 7863 bound_to 1273
  -16.8537  -31.7023    0.1773 LP  0  0  0  0  0  0  0  0  0  0  0  0  # atno 7864 bound_to 1273
  -26.8635  -38.0159   -3.7829 LP  0  0  0  0  0  0  0  0  0  0  0  0  # atno 7873 bound_to 1325
  -27.8918  -38.3741   -2.5660 LP  0  0  0  0  0  0  0  0  0  0  0  0  # atno 7874 bound_to 1325
  -26.9405  -30.0049   -1.0817 LP  0  0  0  0  0  0  0  0  0  0  0  0  # atno 7885 bound_to 1421
  -27.8892  -31.2395   -1.5741 LP  0  0  0  0  0  0  0  0  0  0  0  0  # atno 7886 bound_to 1421
  -31.1851  -21.3543    5.4468 LP  0  0  0  0  0  0  0  0  0  0  0  0  # atno 7921 bound_to 1750
  -31.5173  -21.4723    3.8524 LP  0  0  0  0  0  0  0  0  0  0  0  0  # atno 7922 bound_to 1750
  -18.2471  -27.2837    5.2682 LP  0  0  0  0  0  0  0  0  0  0  0  0  # atno 7971 bound_to 2137
  -19.3567  -26.8809    6.3966 LP  0  0  0  0  0  0  0  0  0  0  0  0  # atno 7972 bound_to 2137
  -28.9878  -33.6847   -8.1904 LP  0  0  0  0  0  0  0  0  0  0  0  0  # atno 7989 bound_to 2204
  -29.2357  -32.1299   -8.6239 LP  0  0  0  0  0  0  0  0  0  0  0  0  # atno 7990 bound_to 2204
  -20.0338  -26.0706   -9.1176 LP  0  0  0  0  0  0  0  0  0  0  0  0  # atno 7999 bound_to 2219
  -21.5453  -26.5363   -9.5239 LP  0  0  0  0  0  0  0  0  0  0  0  0  # atno 8000 bound_to 2219
  -17.8537  -30.6702  -10.1593 LP  0  0  0  0  0  0  0  0  0  0  0  0  # atno 8003 bound_to 2226
  -17.3708  -32.0565   -9.4438 LP  0  0  0  0  0  0  0  0  0  0  0  0  # atno 8004 bound_to 2226
  -24.2528  -31.4668  -11.6742 LP  0  0  0  0  0  0  0  0  0  0  0  0  # atno 8007 bound_to 2233
  -25.1070  -32.1872  -10.4834 LP  0  0  0  0  0  0  0  0  0  0  0  0  # atno 8008 bound_to 2233
  -25.2303  -28.0981  -13.7737 LP  0  0  0  0  0  0  0  0  0  0  0  0  # atno 8011 bound_to 2239
  -25.5957  -29.6818  -13.9315 LP  0  0  0  0  0  0  0  0  0  0  0  0  # atno 8012 bound_to 2239
  -26.5944  -35.1595  -17.1087 LP  0  0  0  0  0  0  0  0  0  0  0  0  # atno 8019 bound_to 2260
  -26.0253  -34.1004  -16.0037 LP  0  0  0  0  0  0  0  0  0  0  0  0  # atno 8020 bound_to 2260
  -28.3173  -32.4037  -29.1346 LP  0  0  0  0  0  0  0  0  0  0  0  0  # atno 8029 bound_to 2299
  -26.9119  -32.6435  -29.9309 LP  0  0  0  0  0  0  0  0  0  0  0  0  # atno 8030 bound_to 2299
   -2.5158  -33.9409   -7.4603 LP  0  0  0  0  0  0  0  0  0  0  0  0  # atno 8039 bound_to 2520
   -3.7031  -33.7950   -8.5718 LP  0  0  0  0  0  0  0  0  0  0  0  0  # atno 8040 bound_to 2520
  -16.0570  -31.9141  -23.8061 LP  0  0  0  0  0  0  0  0  0  0  0  0  # atno 8071 bound_to 2649
  -17.5761  -32.3845  -24.1774 LP  0  0  0  0  0  0  0  0  0  0  0  0  # atno 8072 bound_to 2649
  -15.8744  -16.6935  -18.7433 LP  0  0  0  0  0  0  0  0  0  0  0  0  # atno 8115 bound_to 2927
  -16.2332  -15.3544  -19.6062 LP  0  0  0  0  0  0  0  0  0  0  0  0  # atno 8116 bound_to 2927
  -24.3293  -20.1207  -27.7515 LP  0  0  0  0  0  0  0  0  0  0  0  0  # atno 8119 bound_to 2939
  -24.8551  -21.0472  -26.5139 LP  0  0  0  0  0  0  0  0  0  0  0  0  # atno 8120 bound_to 2939
   -2.6404  -15.0395  -16.6640 LP  0  0  0  0  0  0  0  0  0  0  0  0  # atno 8148 bound_to 3213
   -1.6588  -14.0194  -17.4779 LP  0  0  0  0  0  0  0  0  0  0  0  0  # atno 8149 bound_to 3213
  -11.6976  -26.6808  -22.4111 LP  0  0  0  0  0  0  0  0  0  0  0  0  # atno 8154 bound_to 3233
  -12.9355  -25.7771  -21.8475 LP  0  0  0  0  0  0  0  0  0  0  0  0  # atno 8155 bound_to 3233
  -11.3243  -17.7865  -19.8188 LP  0  0  0  0  0  0  0  0  0  0  0  0  # atno 8158 bound_to 3239
  -10.0521  -16.8508  -19.4035 LP  0  0  0  0  0  0  0  0  0  0  0  0  # atno 8159 bound_to 3239
   -5.3849  -17.0356  -14.4807 LP  0  0  0  0  0  0  0  0  0  0  0  0  # atno 8168 bound_to 3268
   -5.5322  -15.4642  -14.8999 LP  0  0  0  0  0  0  0  0  0  0  0  0  # atno 8169 bound_to 3268
  -33.1852  -22.6041  -18.2278 LP  0  0  0  0  0  0  0  0  0  0  0  0  # atno 8218 bound_to 3594
  -33.5974  -21.8778  -19.6311 LP  0  0  0  0  0  0  0  0  0  0  0  0  # atno 8219 bound_to 3594

> <Gold.Score>
     Score     S(PLP)   S(hbond)     S(cho)   S(metal)  DE(clash)   DE(tors)     intcor
    142.18    -133.97       2.00       0.00       0.99       0.00       3.24       2.77

> <Gold.PLP.Fitness>
142.1793

> <Gold.PLP.PLP>
-133.9704

> <Gold.PLP.part.hbond>
-2.2481

> <Gold.PLP.part.metal>
-1.0000

> <Gold.PLP.part.buried>
-8.2051

> <Gold.PLP.part.nonpolar>
-125.6948

> <Gold.PLP.part.repulsive>
0.1943

> <Gold.PLP.ligand.clash>
0.0000

> <Gold.PLP.ligand.torsion>
3.2402

> <Gold.PLP.Chemscore.Hbond>
2.0000

> <Gold.PLP.Chemscore.CHOScore>
0.0000

> <Gold.PLP.Chemscore.Metal>
0.9865

> <Gold.Chemscore.Hbonds>
donor molecule, donor type, donor heavy atom, donor atom, acceptor molecule, acceptor atom, score
      L1  H    44    93       P1   729  1.00
      L1  H    54    98       P1   729  1.00
      P1  M  3774  3774       L1    51  0.99

> <Gold.PLP.Chemscore.Internal.Correction>
2.7701

